[Config TCP]
description = "default_TCP <---> default_TCP"
network = TCPnetworksim

**.tcp.tcpAlgorithmClass = "TcpNewReno"

*.SN*.app[*].typename = "SensorNode"
*.DF*.app[*].typename = "DFNode"
*.M.app[*].typename = "MasterNode"

*.SN1.app[*].connectAddress = "DF1"
*.SN2.app[*].connectAddress = "DF1"
*.SN3.app[*].connectAddress = "DF2"
*.SN4.app[*].connectAddress = "DF2"
*.DF1.app[*].connectAddress = "M"
*.DF2.app[*].connectAddress = "M"

*.SN*.app[*].numRequestsPerSession = 50
*.DF*.app[*].numRequestsPerSession = 50

**.app[*].stopTime = 300s

**.app[*].requestLength = 200B

**.app[*].thinkTime = 0.2s
**.app[*].idleInterval = 0.1s

**.app[*].tcpTimes.result-recording-modes = +histogram
**.app[*].directTimes.result-recording-modes = +histogram

*.EC.hasSwitch = true
**.per = 0.001

[Config UDP]
description = "default_UDP <--> default_UDP"
network = UDPnetworksim

*.SN*.app[*].typename = "SensorNodeUDP"
*.DF*.app[*].typename = "DFNodeUDP"
*.M.app[*].typename = "MasterNodeUDP"

*.SN1.app[*].destAddresses = "DF1"
*.SN2.app[*].destAddresses = "DF1"
*.SN3.app[*].destAddresses = "DF2"
*.SN4.app[*].destAddresses = "DF2"
*.DF1.app[*].destAddresses = "M"
*.DF2.app[*].destAddresses = "M"

*.SN1.app[*].localAddress = "SN1"
*.SN2.app[*].localAddress = "SN2"
*.SN3.app[*].localAddress = "SN3"
*.SN4.app[*].localAddress = "SN4"
*.DF1.app[*].localAddress = "DF1"
*.DF2.app[*].localAddress = "DF2"

*.SN*.app[*].localPort = 2000
*.SN*.app[*].destPort = 1000
*.DF*.app[*].localPort = 1000
*.DF*.app[*].destPort = 2000
*.M.app[*].localPort = 2000
*.M.app[*].destPort = 1000

*.SN*.app[*].sendInterval = normal(0.1s, 0.01s)
*.SN*.app[*].messageLength = 1000B
*.SN*.app[*].stopTime = 300s

*.DF*.app[*].sendInterval = normal(0.1s, 0.01s)
*.DF*.app[*].messageLength = 1000B
*.DF*.app[*].stopTime = 300s

*.M.app[*].sendInterval = normal(0.15s, 0.01s)
*.M.app[*].messageLength = 1000B
*.M.app[*].stopTime = 300s

**.app[*].udpTimes.result-recording-modes = +histogram
**.app[*].directTimes.result-recording-modes = +histogram

*.EC.hasSwitch = true
**.per = 0.001

[General]
sim-time-limit = 300s
**.numApps = 1
**.queue.frameCapacity = 50
**.queue.queueName = "DropTailQueue"


