[Config TCP]
description = "default_TCP <---> default_TCP"
network = TCPnetworksim

*.SN*.app[*].typename = "SensorNode"
*.DF*.app[*].typename = "DFNode"
*.M.app[*].typename = "MasterNode"

*.SN1.app[*].connectAddress = "DF1"
*.SN2.app[*].connectAddress = "DF1"
*.SN3.app[*].connectAddress = "DF2"
*.SN4.app[*].connectAddress = "DF2"
*.DF1.app[*].connectAddress = "M"
*.DF2.app[*].connectAddress = "M"

*.SN*.app[*].numRequestsPerSession = 50
*.DF*.app[*].numRequestsPerSession = 50

**.app[*].thinkTime = 0.2s
**.app[*].idleInterval = 0.1s

[Config UDP]
description = "default_UDP <--> default_UDP"
network = UDPnetworksim

*.SN*.app[*].typename = "SensorNodeUDP"
*.DF*.app[*].typename = "DFNodeUDP"
*.M.app[*].typename = "MasterNodeUDP"

*.SN1.app[*].destAddresses = "DF1"
*.SN2.app[*].destAddresses = "DF1"
*.SN3.app[*].destAddresses = "DF2"
*.SN4.app[*].destAddresses = "DF2"
*.DF1.app[*].destAddresses = "M"
*.DF2.app[*].destAddresses = "M"

*.SN1.app[*].localAddress = "SN1"
*.SN2.app[*].localAddress = "SN2"
*.SN3.app[*].localAddress = "SN3"
*.SN4.app[*].localAddress = "SN4"
*.DF1.app[*].localAddress = "DF1"
*.DF2.app[*].localAddress = "DF2"

*.SN*.app[*].destPort = 1000
*.DF*.app[*].localPort = 1000
*.DF*.app[*].destPort = 2000
*.M.app[*].localPort = 2000

*.SN*.app[*].sendInterval = 1s
*.SN*.app[*].messageLength = 1000B
*.SN*.app[*].stopTime = 150s

*.DF*.app[*].sendInterval = 1s
*.DF*.app[*].messageLength = 1000B
*.DF*.app[*].stopTime = 150s

[Config inet__inet_stream]
description = "inet_TCP <---> inet_TCP"
**.tcp.typename = "Tcp"
#**.app[*].dataTransferMode = "bytestream"

[Config inet-reno]
description = "inet_TCP <---> inet_TCP w/ Reno algorithm"
**.tcp.typename = "Tcp"
*.per = 0.01 * ${0, 0.1, 0.2, 0.5, 1, 2, 5}

[Config inet-dumb]
description = "inet_TCP <---> inet_TCP w/ DumbTcp algorithm"
**.tcp.typename = "Tcp"
**.tcp.tcpAlgorithmClass = "DumbTcp"
*.per = 0.01 * ${0, 0.1, 0.2, 0.5, 1, 2, 5}

[General]
sim-time-limit = 200s
**.numApps = 1
**.queue.frameCapacity = 10
**.queue.queueName = "DropTailQueue"
